data_S1928262
_symmetry_cell_setting           cubic
_symmetry_Int_Tables_number      224
_symmetry_space_group_name_H-M   Pn-3m
_cell_angle_alpha                90.000000
_cell_angle_beta                 90.000000
_cell_angle_gamma                90.000000
_cell_length_a                   4.279700
_cell_length_b                   4.279700
_cell_length_c                   4.279700
_pauling_file_object_repr        S-A822
_pauling_file_object_version     1.0.0
_pauling_file_entry              S1928262
_pauling_file_entry_reference    https://mpds.io/#entry/S1928262
_pauling_file_phase              Cu2O/224/cP6
_pauling_file_phase_reference    https://mpds.io/#phase/Cu2O/224/cP6
loop_
_symmetry_equiv_pos_site_id
_symmetry_equiv_pos_as_xyz
1 -x+1/2,-y+1/2,-z+1/2
2 -x+1/2,-z+1/2,-y+1/2
3 -x+1/2,y+1/2,z+1/2
4 -x+1/2,z+1/2,y+1/2
5 -x,-y,z
6 -x,-z,y
7 -x,y,-z
8 -x,z,-y
9 -y+1/2,-x+1/2,-z+1/2
10 -y+1/2,-z+1/2,-x+1/2
11 -y+1/2,x+1/2,z+1/2
12 -y+1/2,z+1/2,x+1/2
13 -y,-x,z
14 -y,-z,x
15 -y,x,-z
16 -y,z,-x
17 -z+1/2,-x+1/2,-y+1/2
18 -z+1/2,-y+1/2,-x+1/2
19 -z+1/2,x+1/2,y+1/2
20 -z+1/2,y+1/2,x+1/2
21 -z,-x,y
22 -z,-y,x
23 -z,x,-y
24 -z,y,-x
25 x+1/2,-y+1/2,z+1/2
26 x+1/2,-z+1/2,y+1/2
27 x+1/2,y+1/2,-z+1/2
28 x+1/2,z+1/2,-y+1/2
29 x,-y,-z
30 x,-z,-y
31 x,y,z
32 x,z,y
33 y+1/2,-x+1/2,z+1/2
34 y+1/2,-z+1/2,x+1/2
35 y+1/2,x+1/2,-z+1/2
36 y+1/2,z+1/2,-x+1/2
37 y,-x,-z
38 y,-z,-x
39 y,x,z
40 y,z,x
41 z+1/2,-x+1/2,y+1/2
42 z+1/2,-y+1/2,x+1/2
43 z+1/2,x+1/2,-y+1/2
44 z+1/2,y+1/2,-x+1/2
45 z,-x,-y
46 z,-y,-x
47 z,x,y
48 z,y,x
loop_
_atom_site_label
_atom_site_type_symbol
_atom_site_atomic_num
_atom_site_periodic_num
_atom_site_linus_pauling_num
_atom_site_fract_x
_atom_site_fract_y
_atom_site_fract_z
_atom_site_occupancy
Cu_a Cu 29 74 2 0.0000 0.0000 0.0000 1.0000
O_a O 8 100 2 0.2500 0.2500 0.2500 1.0000
