data_S1000606
_cell_length_a    6.780000
_cell_length_b    6.780000
_cell_length_c    8.277000
_cell_angle_alpha 90.000000
_cell_angle_beta  90.000000
_cell_angle_gamma 90.000000
_symmetry_Int_Tables_number    121
_symmetry_space_group_name_H-M I-42m
_symmetry_cell_setting         tetragonal
_pauling_file_object_repr      S-A822
_pauling_file_object_version   1.0.0
_pauling_file_entry            S1000606
_pauling_file_entry_reference  https://mpds.io/#entry/S1000606
_pauling_file_phase            [NH4]Ag2AsS4/121/tI16
_pauling_file_phase_reference  https://mpds.io/#phase/[NH4]Ag2AsS4/121/tI16

loop_
 _symmetry_equiv_pos_site_id
 _symmetry_equiv_pos_as_xyz
 1 -x+1/2,-y+1/2,z+1/2
 2 -x+1/2,y+1/2,-z+1/2
 3 -x,-y,z
 4 -x,y,-z
 5 -y+1/2,-x+1/2,z+1/2
 6 -y+1/2,x+1/2,-z+1/2
 7 -y,-x,z
 8 -y,x,-z
 9 x+1/2,-y+1/2,-z+1/2
 10 x+1/2,y+1/2,z+1/2
 11 x,-y,-z
 12 x,y,z
 13 y+1/2,-x+1/2,-z+1/2
 14 y+1/2,x+1/2,z+1/2
 15 y,-x,-z
 16 y,x,z

loop_
 _atom_site_label
 _atom_site_type_symbol
 _atom_site_atomic_num
 _atom_site_periodic_num
 _atom_site_linus_pauling_num
 _atom_site_fract_x
 _atom_site_fract_y
 _atom_site_fract_z
 _atom_site_occupancy
 As_a      As     33   96   13  0.0000  0.0000  0.0000  1.0000
 S_a       S      16  101    2  0.1881  0.1881  0.1457  1.0000
 Ag_a      Ag     47   75   79  0.0000  0.5000  0.2500  1.0000
 NH4_a     N       7   94   92  0.0000  0.0000  0.5000  1.0000

#
# end of data item S1000606
#
